<?xml version="1.0" encoding="UTF-8"?>

<!--
SPDX-FileCopyrightText: 2023 Mario Franke <research@m-franke.net>

SPDX-License-Identifier: GPL-2.0-or-later
-->

<!-- generated on 2022-03-23 22:51:58 by Eclipse SUMO duarouter Version 1.11.0
<configuration xmlns:xsi="http://www.w3.org/2001/XMLSchema-instance" xsi:noNamespaceSchemaLocation="http://sumo.dlr.de/xsd/duarouterConfiguration.xsd">

    <input>
        <net-file value="../examples/space_veins/Null-Island-3by3-grid.net.xml"/>
        <route-files value="test.trips.xml"/>
    </input>

    <output>
        <output-file value="test.rou.xml"/>
        <named-routes value="true"/>
        <alternatives-output value="test.rou.alt.xml"/>
    </output>

</configuration>
-->

<routes xmlns:xsi="http://www.w3.org/2001/XMLSchema-instance" xsi:noNamespaceSchemaLocation="http://sumo.dlr.de/xsd/routes_file.xsd">
    <route id="r0" edges="he1_2 -he1_2 -ve1_1 -he0_1 ve0_1 -ve0_1 he0_1 he1_1 he2_1 ve3_1 -he2_2 ve2_2 he2_3 -ve3_2 -ve3_1 -ve3_0 -he2_0 he2_0 ve3_0 -he2_1 -ve2_0 ve2_0"/>
    <route id="r1" edges="-he1_0 he1_0 ve2_0 ve2_1 ve2_2 -ve2_2 -ve2_1 -he1_1 -he0_1 he0_1 he1_1 he2_1 ve3_1 -he2_2 -he1_2 -he0_2 -ve0_1 -ve0_0 he0_0 ve1_0 -he0_1 he0_1 he1_1 he2_1 -he2_1"/>
    <route id="r2" edges="he1_3 -he1_3 -he0_3 -ve0_2 he0_2 he1_2 he2_2 -he2_2 -he1_2 -ve1_1 -ve1_0 he1_0 -he1_0 -he0_0 ve0_0 ve0_1 ve0_2 he0_3 -ve1_2 -ve1_1 -ve1_0 -he0_0 ve0_0 ve0_1 ve0_2"/>
    <route id="r3" edges="he2_1 ve3_1 -he2_2 -he1_2 -ve1_1 he1_1 ve2_1 ve2_2 -he1_3 -ve1_2 -ve1_1 -ve1_0 he1_0 he2_0 ve3_0 ve3_1 -he2_2 -he1_2 -ve1_1 -ve1_0 he1_0 -he1_0"/>
    <route id="r4" edges="ve1_1 -ve1_1 -ve1_0 he1_0 -he1_0 -he0_0 ve0_0 ve0_1 ve0_2 he0_3 he1_3 he2_3 -ve3_2 -ve3_1 -he2_1 -he1_1 -he0_1 he0_1 he1_1 he2_1 ve3_1 -he2_2 -ve2_1 -ve2_0"/>
    <route id="r5" edges="he0_2 -ve1_1 -ve1_0 ve1_0 he1_1 ve2_1 -he1_2 ve1_2 -he0_3 -ve0_2 ve0_2 he0_3 he1_3 -ve2_2 -ve2_1 he2_1 ve3_1 -he2_2 -he1_2 -he0_2"/>
    <route id="r6" edges="-he2_2 -he1_2 -he0_2 -ve0_1 he0_1 ve1_1 ve1_2 -he0_3 -ve0_2 he0_2 he1_2 he2_2 ve3_2 -he2_3 -ve2_2 -ve2_1 -ve2_0 -he1_0 -he0_0 ve0_0 ve0_1 -ve0_1 he0_1 ve1_1 he1_2"/>
    <route id="r7" edges="-ve1_2 he1_2 he2_2 -he2_2 -he1_2 -he0_2 -ve0_1 -ve0_0 he0_0 he1_0 ve2_0 ve2_1 ve2_2 -he1_3 he1_3 -he1_3 -ve1_2 -ve1_1 he1_1"/>
    <route id="r8" edges="-he2_0 ve2_0 ve2_1 he2_2 ve3_2 -he2_3 -he1_3 -ve1_2 -ve1_1 he1_1 -ve2_0 he2_0 ve3_0 ve3_1 ve3_2 -he2_3 -he1_3 -ve1_2 he1_2 -he1_2 -he0_2 he0_2"/>
    <route id="r9" edges="he2_0 ve3_0 -he2_1 -he1_1 ve1_1 -ve1_1 -he0_1 ve0_1 he0_2 he1_2 he2_2 -he2_2 -he1_2 -ve1_1 -he0_1 he0_1 -ve1_0 ve1_0 -he0_1 -ve0_0"/>
    <route id="r10" edges="-he2_2 -ve2_1 -ve2_0 he2_0 ve3_0 -he2_1 -ve2_0 ve2_0 -he1_1 -ve1_0 ve1_0 ve1_1 ve1_2 he1_3 -ve2_2 -ve2_1 -ve2_0 ve2_0 ve2_1"/>
    <route id="r11" edges="-ve3_1 -he2_1 -he1_1 -he0_1 -ve0_0 he0_0 he1_0 he2_0 ve3_0 ve3_1 ve3_2 -he2_3 -he1_3 -he0_3 -ve0_2 he0_2 -he0_2 -ve0_1 -ve0_0 he0_0 he1_0 ve2_0 ve2_1"/>
    <route id="r12" edges="-ve2_1 he2_1 ve3_1 -he2_2 he2_2 ve3_2 -he2_3 -he1_3 -he0_3 -ve0_2 -ve0_1 -ve0_0 he0_0 he1_0 -he1_0 ve1_0 ve1_1 -he0_2 -ve0_1 he0_1 he1_1 -he1_1"/>
    <route id="r13" edges="he1_2 -he1_2 -he0_2 ve0_2 he0_3 he1_3 -ve2_2 ve2_2 -he1_3 -he0_3 -ve0_2 -ve0_1 he0_1 he1_1 -ve2_0 he2_0 ve3_0 ve3_1 ve3_2 -he2_3 -he1_3 -he0_3 -ve0_2 -ve0_1 he0_1"/>
    <route id="r14" edges="ve3_1 -he2_2 -he1_2 ve1_2 -ve1_2 -ve1_1 -ve1_0 -he0_0 ve0_0 ve0_1 he0_2 he1_2 he2_2 -he2_2 -ve2_1 -ve2_0 he2_0 ve3_0 -he2_1 -he1_1 -he0_1 he0_1 -he0_1 -ve0_0"/>
    <route id="r15" edges="he1_2 -ve2_1 -he1_1 he1_1 ve2_1 ve2_2 -ve2_2 he2_2 -ve3_1 -ve3_0 -he2_0 he2_0 ve3_0 -he2_1 -ve2_0 ve2_0 -he1_1 -he0_1 -ve0_0"/>
    <route id="r16" edges="he0_0 he1_0 he2_0 ve3_0 -ve3_0 -he2_0 ve2_0 ve2_1 -he1_2 ve1_2 -he0_3 -ve0_2 he0_2 he1_2 -he1_2 -ve1_1 he1_1"/>
    <route id="r17" edges="-he1_3 -ve1_2 -ve1_1 -ve1_0 -he0_0 ve0_0 he0_1 -he0_1 ve0_1 -ve0_1 he0_1 -ve1_0 -he0_0 ve0_0 he0_1 -ve1_0"/>
    <route id="r18" edges="-he0_0 ve0_0 ve0_1 he0_2 he1_2 ve2_2 -ve2_2 -ve2_1 -ve2_0 ve2_0 -he1_1 -ve1_0 ve1_0 ve1_1 ve1_2 -he0_3 -ve0_2 he0_2 -he0_2 -ve0_1 -ve0_0 he0_0 he1_0 ve2_0"/>
    <route id="r19" edges="ve3_0 -he2_1 -ve2_0 -he1_0 he1_0 ve2_0 ve2_1 ve2_2 he2_3 -ve3_2 ve3_2 -he2_3 -he1_3 -he0_3 -ve0_2 -ve0_1 -ve0_0 he0_0 -he0_0 ve0_0 he0_1 he1_1 ve2_1 -he1_2"/>
    <route id="r20" edges="-ve3_1 ve3_1 -he2_2 -he1_2 -he0_2 he0_2 -he0_2 -ve0_1 -ve0_0 he0_0 ve1_0 ve1_1 ve1_2 he1_3 -ve2_2 he2_2 -he2_2 -he1_2 -he0_2 -ve0_1 he0_1"/>
    <route id="r21" edges="he2_3 -ve3_2 -ve3_1 -he2_1 -he1_1 ve1_1 ve1_2 -he0_3 -ve0_2 he0_2 he1_2 he2_2 ve3_2 -he2_3 -he1_3 he1_3 he2_3 -ve3_2 -ve3_1 -ve3_0 -he2_0 -he1_0 -he0_0 ve0_0 -ve0_0 he0_0"/>
    <route id="r22" edges="-he1_1 he1_1 he2_1 ve3_1 -he2_2 -he1_2 -ve1_1 -ve1_0 he1_0 he2_0 ve3_0 ve3_1 ve3_2 -he2_3 -ve2_2 he2_2 -he2_2 -he1_2 ve1_2 -he0_3"/>
    <route id="r23" edges="he1_2 he2_2 -he2_2 -ve2_1 ve2_1 -he1_2 ve1_2 -he0_3 -ve0_2 he0_2 he1_2 he2_2 ve3_2 -he2_3 -ve2_2 -ve2_1 -ve2_0 he2_0"/>
    <route id="r24" edges="-he2_2 -he1_2 he1_2 ve2_2 -he1_3 -he0_3 -ve0_2 ve0_2 he0_3 he1_3 he2_3 -ve3_2 -ve3_1 -he2_1 -he1_1 -he0_1 ve0_1 ve0_2"/>
    <route id="r25" edges="-he2_1 -ve2_0 -he1_0 he1_0 ve2_0 ve2_1 ve2_2 -ve2_2 he2_2 -ve3_1 ve3_1 -he2_2 he2_2 -he2_2 -ve2_1 -ve2_0 he2_0"/>
    <route id="r26" edges="ve3_2 -he2_3 -ve2_2 -ve2_1 -ve2_0 -he1_0 he1_0 ve2_0 ve2_1 -ve2_1 ve2_1 -he1_2 -ve1_1 ve1_1 ve1_2 -ve1_2 he1_2 he2_2 ve3_2 -he2_3 -ve2_2 -ve2_1 he2_1 -he2_1"/>
    <route id="r27" edges="-ve3_0 -he2_0 ve2_0 ve2_1 ve2_2 -ve2_2 -he1_2 -he0_2 -ve0_1 he0_1 he1_1 he2_1 ve3_1 ve3_2 -he2_3 -ve2_2 ve2_2 he2_3 -ve3_2 -ve3_1 -ve3_0 -he2_0 -he1_0 ve1_0 ve1_1 ve1_2"/>
    <route id="r28" edges="he0_2 -he0_2 he0_2 he1_2 he2_2 ve3_2 -he2_3 -he1_3 -ve1_2 -ve1_1 ve1_1 -ve1_1 he1_1 he2_1 ve3_1 -he2_2 ve2_2 -he1_3 -ve1_2 -ve1_1 ve1_1"/>
    <route id="r29" edges="-he1_3 he1_3 he2_3 -ve3_2 -he2_2 -ve2_1 ve2_1 -he1_2 -he0_2 -ve0_1 he0_1 he1_1 -ve2_0 he2_0 ve3_0 ve3_1 ve3_2"/>
    <route id="r30" edges="-ve0_0 he0_0 -he0_0 ve0_0 ve0_1 -ve0_1 he0_1 he1_1 he2_1 -ve3_0 -he2_0 ve2_0 ve2_1 ve2_2 -ve2_2 -ve2_1 -ve2_0 he2_0 ve3_0 ve3_1 ve3_2 -he2_3 -he1_3 -he0_3 -ve0_2 he0_2"/>
    <route id="r31" edges="he2_2 ve3_2 -he2_3 -he1_3 -he0_3 -ve0_2 -ve0_1 he0_1 he1_1 he2_1 ve3_1 -he2_2 -he1_2 -he0_2 ve0_2 he0_3 -he0_3 -ve0_2 he0_2 he1_2 ve2_2 he2_3"/>
    <route id="r32" edges="-he0_2 -ve0_1 -ve0_0 he0_0 he1_0 ve2_0 -he1_1 -he0_1 -ve0_0 he0_0 ve1_0 ve1_1 he1_2 ve2_2 -he1_3 -ve1_2 -ve1_1 he1_1 he2_1 ve3_1 ve3_2 -he2_3 -he1_3 -he0_3"/>
    <route id="r33" edges="-he2_0 -he1_0 he1_0 he2_0 ve3_0 ve3_1 ve3_2 -he2_3 -ve2_2 -ve2_1 -he1_1 -ve1_0 he1_0 ve2_0 he2_1 ve3_1 ve3_2 -he2_3"/>
    <route id="r34" edges="he1_0 ve2_0 -he1_1 he1_1 ve2_1 ve2_2 -ve2_2 -he1_2 -ve1_1 -ve1_0 he1_0 ve2_0 -he1_1 -he0_1 he0_1 he1_1 ve2_1 ve2_2 he2_3 -ve3_2 -ve3_1 -he2_1"/>
    <route id="r35" edges="he2_2 ve3_2 -he2_3 -ve2_2 -ve2_1 -ve2_0 he2_0 ve3_0 ve3_1 ve3_2 -he2_3 -he1_3 -he0_3 -ve0_2 -ve0_1 he0_1 -ve1_0 -he0_0 ve0_0"/>
    <route id="r36" edges="-he0_3 -ve0_2 -ve0_1 he0_1 he1_1 he2_1 -ve3_0 -he2_0 he2_0 ve3_0 ve3_1 ve3_2 -he2_3 -he1_3 -he0_3 -ve0_2 he0_2 he1_2 he2_2 -he2_2 -he1_2 -he0_2 -ve0_1 -ve0_0"/>
    <route id="r37" edges="ve2_2 -ve2_2 -ve2_1 -ve2_0 ve2_0 ve2_1 ve2_2 -he1_3 -ve1_2 he1_2 ve2_2 -he1_3 -ve1_2 -ve1_1 ve1_1 -ve1_1 he1_1 he2_1"/>
    <route id="r38" edges="he1_1 he2_1 ve3_1 ve3_2 -he2_3 -he1_3 he1_3 -he1_3 -ve1_2 -ve1_1 -ve1_0 -he0_0 ve0_0 -ve0_0 he0_0 ve1_0 ve1_1 ve1_2 -he0_3 -ve0_2 he0_2 ve1_2 he1_3"/>
    <route id="r39" edges="ve3_0 ve3_1 -he2_2 -he1_2 -ve1_1 he1_1 -he1_1 -he0_1 ve0_1 he0_2 -he0_2 -ve0_1 he0_1 he1_1"/>
    <route id="r40" edges="he2_2 -ve3_1 -he2_1 -he1_1 ve1_1 he1_2 -he1_2 -he0_2 -ve0_1 -ve0_0 he0_0 he1_0 ve2_0 ve2_1 ve2_2 he2_3 -ve3_2 -he2_2 -ve2_1 ve2_1 -he1_2 -ve1_1 ve1_1"/>
    <route id="r41" edges="-he1_0 he1_0 ve2_0 ve2_1 ve2_2 -ve2_2 -he1_2 -he0_2 -ve0_1 -ve0_0 he0_0 -he0_0 ve0_0 ve0_1 he0_2 he1_2 -he1_2 -he0_2 -ve0_1 -ve0_0"/>
    <route id="r42" edges="he2_3 -ve3_2 -he2_2 -he1_2 -he0_2 he0_2 he1_2 ve2_2 -ve2_2 -ve2_1 -ve2_0 -he1_0 -he0_0 ve0_0 ve0_1 ve0_2 he0_3 -he0_3 -ve0_2 -ve0_1 -ve0_0 he0_0 he1_0 ve2_0 ve2_1"/>
    <route id="r43" edges="he0_2 -ve1_1 ve1_1 -he0_2 ve0_2 he0_3 he1_3 -he1_3 -ve1_2 he1_2 -he1_2 ve1_2 -he0_3 -ve0_2 -ve0_1 he0_1 he1_1 ve2_1"/>
    <route id="r44" edges="ve0_2 he0_3 -ve1_2 ve1_2 -ve1_2 -ve1_1 he1_1 ve2_1 he2_2 -he2_2 he2_2 ve3_2 -he2_3 -ve2_2 -ve2_1 -ve2_0 -he1_0 -he0_0 ve0_0 ve0_1"/>
    <route id="r45" edges="ve2_0 ve2_1 -ve2_1 -he1_1 he1_1 ve2_1 ve2_2 -he1_3 -ve1_2 he1_2 ve2_2 -he1_3 -ve1_2 ve1_2 he1_3 he2_3 -ve3_2 -ve3_1 ve3_1"/>
    <route id="r46" edges="ve0_2 he0_3 he1_3 -ve2_2 -ve2_1 -ve2_0 ve2_0 -he1_1 -he0_1 ve0_1 ve0_2 he0_3 he1_3 he2_3 -ve3_2 -ve3_1 -he2_1 -he1_1 -ve1_0 he1_0 ve2_0 ve2_1 ve2_2 -he1_3 -he0_3 -ve0_2 ve0_2"/>
    <route id="r47" edges="ve1_2 -he0_3 -ve0_2 ve0_2 he0_3 -he0_3 -ve0_2 -ve0_1 -ve0_0 he0_0 -he0_0 ve0_0 ve0_1 -ve0_1 he0_1 he1_1 -he1_1 ve1_1 ve1_2"/>
    <route id="r48" edges="-he2_2 -he1_2 -ve1_1 -ve1_0 ve1_0 ve1_1 he1_2 he2_2 -ve3_1 ve3_1 ve3_2 -he2_3 -he1_3 -he0_3 -ve0_2 ve0_2 he0_3 he1_3 he2_3 -ve3_2 -he2_2 -he1_2 -ve1_1 -he0_1"/>
    <route id="r49" edges="-he2_1 -he1_1 -ve1_0 ve1_0 ve1_1 ve1_2 he1_3 he2_3 -ve3_2 -ve3_1 ve3_1 -he2_2 -he1_2 -he0_2 -ve0_1 he0_1 ve1_1 he1_2 -ve2_1"/>
    <route id="r50" edges="ve3_2 -he2_3 -he1_3 -he0_3 -ve0_2 -ve0_1 he0_1 he1_1 -ve2_0 he2_0 ve3_0 -he2_1 -he1_1 he1_1 he2_1 ve3_1 -ve3_1 -ve3_0 -he2_0 he2_0 ve3_0 ve3_1"/>
    <route id="r51" edges="-ve0_0 he0_0 he1_0 ve2_0 -he1_1 he1_1 ve2_1 ve2_2 -ve2_2 he2_2 -he2_2 -he1_2 -ve1_1 -ve1_0 ve1_0 he1_1 -he1_1 -he0_1 -ve0_0 he0_0"/>
    <route id="r52" edges="-ve2_0 -he1_0 -he0_0 ve0_0 ve0_1 ve0_2 he0_3 -he0_3 -ve0_2 -ve0_1 -ve0_0 he0_0 he1_0 ve2_0 ve2_1 he2_2 -ve3_1 -ve3_0 -he2_0 -he1_0 -he0_0 ve0_0 ve0_1 he0_2 he1_2 ve2_2 -he1_3 -he0_3 -ve0_2 -ve0_1 he0_1"/>
    <route id="r53" edges="he2_2 ve3_2 -he2_3 he2_3 -ve3_2 -ve3_1 -ve3_0 -he2_0 he2_0 ve3_0 ve3_1 ve3_2 -he2_3 -he1_3 -ve1_2 ve1_2 -he0_3 -ve0_2 he0_2 ve1_2 he1_3 -he1_3 -ve1_2 -ve1_1 -ve1_0"/>
    <route id="r54" edges="-ve1_0 ve1_0 ve1_1 he1_2 he2_2 ve3_2 -he2_3 -he1_3 -he0_3 -ve0_2 he0_2 he1_2 -ve2_1"/>
    <route id="r55" edges="-ve0_2 he0_2 he1_2 -he1_2 he1_2 ve2_2 -ve2_2 -ve2_1 -ve2_0 he2_0 ve3_0 -he2_1 -ve2_0 he2_0 ve3_0 -he2_1 ve2_1 -he1_2 -ve1_1 he1_1"/>
    <route id="r56" edges="-ve0_2 he0_2 -ve1_1 -ve1_0 -he0_0 ve0_0 ve0_1 -ve0_1 he0_1 he1_1 ve2_1 ve2_2 -ve2_2 -he1_2 -he0_2 ve0_2 he0_3 he1_3"/>
    <route id="r57" edges="-ve3_1 -ve3_0 -he2_0 he2_0 ve3_0 ve3_1 -he2_2 he2_2 -ve3_1 -he2_1 ve2_1 -he1_2 -he0_2 ve0_2 he0_3 he1_3 he2_3 -ve3_2 -ve3_1 -ve3_0 -he2_0"/>
    <route id="r58" edges="-he1_0 -he0_0 ve0_0 -ve0_0 he0_0 ve1_0 ve1_1 he1_2 -he1_2 -ve1_1 -ve1_0 ve1_0 -ve1_0 -he0_0 ve0_0 -ve0_0 he0_0 he1_0 he2_0"/>
    <route id="r59" edges="-he2_2 -ve2_1 he2_1 -he2_1 -he1_1 -he0_1 he0_1 he1_1 he2_1 ve3_1 ve3_2 -he2_3 he2_3 -ve3_2 -ve3_1 -he2_1 -he1_1 ve1_1 ve1_2 -he0_3"/>
    <route id="r60" edges="-ve2_1 ve2_1 -he1_2 he1_2 he2_2 -ve3_1 -he2_1 he2_1 ve3_1 ve3_2 -he2_3 he2_3 -ve3_2 ve3_2 -he2_3 -he1_3 he1_3"/>
    <route id="r61" edges="-he0_0 ve0_0 he0_1 he1_1 -he1_1 he1_1 ve2_1 ve2_2 -ve2_2 he2_2 -ve3_1 -ve3_0 -he2_0 he2_0 ve3_0"/>
    <route id="r62" edges="he0_0 ve1_0 ve1_1 -he0_2 he0_2 he1_2 he2_2 ve3_2 -he2_3 -he1_3 -ve1_2 -ve1_1 ve1_1 he1_2 he2_2 -ve3_1 -ve3_0 -he2_0 -he1_0 -he0_0 ve0_0 ve0_1 ve0_2 he0_3 -ve1_2 -ve1_1 -ve1_0 he1_0 he2_0"/>
    <route id="r63" edges="ve3_2 -he2_3 -he1_3 -ve1_2 -ve1_1 -ve1_0 he1_0 he2_0 ve3_0 -he2_1 -ve2_0 ve2_0 -he1_1 he1_1 ve2_1 he2_2 -he2_2 -he1_2 -he0_2 -ve0_1 -ve0_0 he0_0"/>
    <route id="r64" edges="ve1_0 ve1_1 -he0_2 he0_2 he1_2 -ve2_1 ve2_1 ve2_2 he2_3 -ve3_2 -ve3_1 -he2_1 -he1_1 -he0_1 -ve0_0 he0_0 he1_0 he2_0 ve3_0 ve3_1 ve3_2 -he2_3"/>
    <route id="r65" edges="he1_2 -he1_2 -ve1_1 -ve1_0 -he0_0 ve0_0 he0_1 ve1_1 he1_2 -he1_2 -he0_2 -ve0_1 he0_1 ve1_1 ve1_2 -he0_3 -ve0_2 -ve0_1"/>
    <route id="r66" edges="-ve0_1 he0_1 -ve1_0 ve1_0 -he0_1 he0_1 he1_1 ve2_1 -he1_2 he1_2 he2_2 ve3_2 -he2_3 -ve2_2 -ve2_1 he2_1"/>
    <route id="r67" edges="-he0_3 -ve0_2 he0_2 he1_2 -ve2_1 ve2_1 -he1_2 -he0_2 he0_2 he1_2 -ve2_1 he2_1 -he2_1 ve2_1 ve2_2 -ve2_2 -ve2_1 ve2_1"/>
    <route id="r68" edges="he1_0 ve2_0 he2_1 ve3_1 -he2_2 -he1_2 ve1_2 -ve1_2 -ve1_1 -ve1_0 -he0_0 ve0_0 he0_1 he1_1 -ve2_0 -he1_0 -he0_0 ve0_0 he0_1 ve1_1 -ve1_1"/>
    <route id="r69" edges="ve0_0 he0_1 ve1_1 -ve1_1 -ve1_0 he1_0 he2_0 ve3_0 ve3_1 ve3_2 -he2_3 -ve2_2 ve2_2 he2_3 -ve3_2 -he2_2 -he1_2 -he0_2 he0_2 -ve1_1 -ve1_0 he1_0"/>
    <route id="r70" edges="-he2_2 ve2_2 -ve2_2 -ve2_1 -he1_1 -he0_1 he0_1 ve1_1 -ve1_1 -ve1_0 he1_0 he2_0 ve3_0 ve3_1 -he2_2 -ve2_1"/>
    <route id="r71" edges="-he1_3 he1_3 he2_3 -ve3_2 -ve3_1 ve3_1 -he2_2 -he1_2 -ve1_1 he1_1 -he1_1 -he0_1 he0_1 he1_1 -ve2_0 -he1_0 -he0_0 ve0_0 ve0_1 ve0_2 he0_3"/>
    <route id="r72" edges="-he0_1 he0_1 ve1_1 he1_2 -he1_2 he1_2 he2_2 -ve3_1 ve3_1 -he2_2 -he1_2 -he0_2 -ve0_1 he0_1 he1_1 -ve2_0 he2_0 ve3_0 ve3_1 -he2_2"/>
    <route id="r73" edges="-ve1_0 -he0_0 ve0_0 he0_1 he1_1 -ve2_0 -he1_0 -he0_0 ve0_0 -ve0_0 he0_0 ve1_0 -he0_1 -ve0_0 he0_0 ve1_0 ve1_1 ve1_2 -he0_3"/>
    <route id="r74" edges="-he0_0 ve0_0 he0_1 he1_1 he2_1 ve3_1 ve3_2 -he2_3 -he1_3 -ve1_2 -ve1_1 ve1_1 ve1_2 he1_3 -he1_3 -he0_3 -ve0_2 -ve0_1 ve0_1 ve0_2 he0_3 he1_3"/>
    <route id="r75" edges="ve0_0 -ve0_0 he0_0 he1_0 he2_0 ve3_0 -he2_1 -he1_1 -ve1_0 -he0_0 ve0_0 ve0_1 ve0_2 he0_3 he1_3 -he1_3 -ve1_2 he1_2 -he1_2 -ve1_1 -ve1_0 he1_0 he2_0"/>
    <route id="r76" edges="he0_3 he1_3 he2_3 -ve3_2 -he2_2 -ve2_1 he2_1 -ve3_0 -he2_0 -he1_0 -he0_0 ve0_0 he0_1 he1_1 he2_1 -ve3_0 -he2_0 -he1_0 ve1_0 he1_1 ve2_1 ve2_2 he2_3"/>
    <route id="r77" edges="-he1_1 -ve1_0 ve1_0 he1_1 he2_1 ve3_1 -he2_2 -ve2_1 -he1_1 -he0_1 he0_1 ve1_1 ve1_2 -he0_3 -ve0_2 -ve0_1 -ve0_0 he0_0 he1_0 he2_0"/>
    <route id="r78" edges="ve3_0 ve3_1 -he2_2 -ve2_1 ve2_1 he2_2 ve3_2 -he2_3 -he1_3 -he0_3 -ve0_2 -ve0_1 he0_1 he1_1 he2_1 ve3_1 -he2_2 -he1_2 he1_2 -ve2_1 -ve2_0 -he1_0"/>
    <route id="r79" edges="ve0_1 -ve0_1 he0_1 ve1_1 -ve1_1 -ve1_0 he1_0 ve2_0 -he1_1 he1_1 he2_1 ve3_1 ve3_2 -he2_3 -he1_3 -he0_3 -ve0_2 -ve0_1 ve0_1 he0_2 -ve1_1"/>
    <route id="r80" edges="-ve2_2 ve2_2 -he1_3 -ve1_2 -he0_2 -ve0_1 -ve0_0 he0_0 ve1_0 ve1_1 -ve1_1 ve1_1 -ve1_1 -ve1_0 ve1_0 he1_1 -he1_1"/>
    <route id="r81" edges="ve3_1 -he2_2 -he1_2 he1_2 -he1_2 -ve1_1 -ve1_0 ve1_0 he1_1 he2_1 ve3_1 ve3_2 -he2_3 -ve2_2 ve2_2 he2_3 -ve3_2 -ve3_1 ve3_1"/>
    <route id="r82" edges="-ve0_0 he0_0 -he0_0 ve0_0 ve0_1 ve0_2 he0_3 -he0_3 -ve0_2 -ve0_1 he0_1 he1_1 ve2_1 ve2_2 he2_3 -ve3_2 ve3_2 -he2_3 -ve2_2 ve2_2 he2_3 -ve3_2 -ve3_1 -he2_1 -he1_1 -he0_1 -ve0_0"/>
    <route id="r83" edges="ve1_1 -ve1_1 -ve1_0 ve1_0 -ve1_0 he1_0 -he1_0 he1_0 ve2_0 he2_1 ve3_1 ve3_2 -he2_3 he2_3 -ve3_2 -ve3_1 -he2_1 -he1_1 he1_1"/>
    <route id="r84" edges="-ve2_0 ve2_0 -he1_1 -he0_1 he0_1 ve1_1 he1_2 he2_2 -ve3_1 -ve3_0 -he2_0 he2_0 ve3_0 ve3_1 -he2_2 -he1_2 -he0_2 ve0_2 he0_3 -ve1_2 -ve1_1"/>
    <route id="r85" edges="ve2_0 he2_1 ve3_1 -he2_2 -he1_2 -he0_2 -ve0_1 -ve0_0 he0_0 -he0_0 ve0_0 -ve0_0 he0_0 he1_0 he2_0 ve3_0 -he2_1 -ve2_0 -he1_0 he1_0 ve2_0 ve2_1 he2_2"/>
    <route id="r86" edges="-ve3_2 -ve3_1 -ve3_0 -he2_0 -he1_0 -he0_0 ve0_0 he0_1 he1_1 he2_1 ve3_1 ve3_2 -he2_3 -he1_3 he1_3 he2_3 -ve3_2 -he2_2 -he1_2 -he0_2 ve0_2 he0_3 he1_3 -ve2_2 -ve2_1 -ve2_0 -he1_0"/>
    <route id="r87" edges="-he2_2 -ve2_1 he2_1 ve3_1 ve3_2 -he2_3 -he1_3 -he0_3 -ve0_2 ve0_2 he0_3 he1_3 he2_3 -ve3_2 -ve3_1 -he2_1 -he1_1 -he0_1 he0_1 he1_1 ve2_1 ve2_2 -ve2_2"/>
    <route id="r88" edges="he2_3 -ve3_2 -ve3_1 -he2_1 -he1_1 -ve1_0 ve1_0 he1_1 he2_1 ve3_1 -he2_2 -he1_2 -he0_2 -ve0_1 -ve0_0 he0_0 he1_0 ve2_0 -he1_1 he1_1 he2_1 -he2_1"/>
    <route id="r89" edges="-he1_1 -he0_1 he0_1 -ve1_0 -he0_0 ve0_0 he0_1 he1_1 he2_1 -ve3_0 -he2_0 he2_0 ve3_0 ve3_1 -he2_2 ve2_2 he2_3 -ve3_2 -he2_2 he2_2"/>
    <route id="r90" edges="ve3_1 -he2_2 -he1_2 -he0_2 -ve0_1 he0_1 ve1_1 -he0_2 -ve0_1 -ve0_0 he0_0 he1_0 -he1_0 he1_0 he2_0 ve3_0 -he2_1 he2_1 ve3_1 -he2_2 -ve2_1 he2_1 -ve3_0 -he2_0"/>
    <route id="r91" edges="-he0_0 ve0_0 he0_1 ve1_1 -he0_2 -ve0_1 he0_1 he1_1 he2_1 ve3_1 -he2_2 -he1_2 -he0_2 he0_2 he1_2 -ve2_1 he2_1 ve3_1 -he2_2 -he1_2"/>
    <route id="r92" edges="ve1_2 he1_3 he2_3 -ve3_2 -he2_2 -he1_2 ve1_2 -he0_3 -ve0_2 ve0_2 he0_3 he1_3 he2_3 -ve3_2 -ve3_1 -ve3_0 -he2_0"/>
    <route id="r93" edges="-he0_2 -ve0_1 -ve0_0 he0_0 he1_0 he2_0 ve3_0 ve3_1 -ve3_1 -ve3_0 -he2_0 -he1_0 ve1_0 he1_1 ve2_1 -ve2_1 ve2_1 ve2_2 -he1_3 -he0_3 -ve0_2 he0_2 he1_2"/>
    <route id="r94" edges="-he0_2 he0_2 he1_2 ve2_2 -he1_3 -he0_3 -ve0_2 ve0_2 he0_3 -he0_3 -ve0_2 he0_2 he1_2 he2_2 ve3_2 -he2_3 -ve2_2 -ve2_1 -he1_1 -ve1_0 -he0_0 ve0_0"/>
    <route id="r95" edges="he1_1 -he1_1 -he0_1 ve0_1 he0_2 he1_2 he2_2 -he2_2 -he1_2 -he0_2 -ve0_1 he0_1 he1_1 he2_1 -ve3_0 -he2_0 -he1_0 ve1_0 ve1_1 ve1_2"/>
    <route id="r96" edges="ve3_2 -he2_3 -he1_3 -he0_3 -ve0_2 -ve0_1 he0_1 he1_1 ve2_1 ve2_2 he2_3 -ve3_2 -ve3_1 -ve3_0 -he2_0 he2_0 ve3_0 -he2_1"/>
    <route id="r97" edges="-he2_2 -he1_2 ve1_2 he1_3 -he1_3 he1_3 he2_3 -ve3_2 -ve3_1 -ve3_0 -he2_0 -he1_0 ve1_0 ve1_1 ve1_2 -he0_3 -ve0_2 -ve0_1 -ve0_0 he0_0 -he0_0 ve0_0 he0_1 he1_1 he2_1 -ve3_0"/>
    <route id="r98" edges="he1_0 ve2_0 ve2_1 -he1_2 -he0_2 -ve0_1 he0_1 he1_1 he2_1 ve3_1 ve3_2 -he2_3 -ve2_2 -ve2_1 he2_1 -ve3_0 -he2_0 he2_0"/>
    <route id="r99" edges="ve2_2 -he1_3 -he0_3 -ve0_2 -ve0_1 ve0_1 he0_2 he1_2 ve2_2 -he1_3 he1_3 -ve2_2 ve2_2 -ve2_2 -he1_2 -he0_2 he0_2"/>
    <route id="r100" edges="he1_3 -ve2_2 -ve2_1 ve2_1 -he1_2 -ve1_1 -ve1_0 ve1_0 ve1_1 ve1_2 -he0_3 -ve0_2 he0_2 he1_2 ve2_2 -he1_3 -he0_3 -ve0_2 he0_2 ve1_2 he1_3 he2_3"/>
    <route id="r101" edges="he0_3 -he0_3 -ve0_2 -ve0_1 he0_1 he1_1 -he1_1 he1_1 he2_1 -he2_1 -ve2_0 he2_0 ve3_0 -he2_1 -he1_1 -he0_1 -ve0_0 he0_0"/>
    <route id="r102" edges="-ve3_2 ve3_2 -he2_3 -he1_3 -he0_3 -ve0_2 -ve0_1 he0_1 -he0_1 he0_1 he1_1 ve2_1 ve2_2 -ve2_2 -he1_2 -ve1_1 -ve1_0 ve1_0 -he0_1 -ve0_0 he0_0 he1_0 -he1_0"/>
    <route id="r103" edges="ve3_1 -he2_2 -he1_2 -ve1_1 ve1_1 -he0_2 ve0_2 he0_3 he1_3 -ve2_2 -ve2_1 -ve2_0 he2_0 ve3_0 ve3_1 ve3_2 -he2_3 -ve2_2 -ve2_1 -ve2_0 he2_0 ve3_0 -he2_1 -he1_1 -he0_1 -ve0_0"/>
    <route id="r104" edges="-he0_1 -ve0_0 he0_0 -he0_0 ve0_0 ve0_1 he0_2 he1_2 he2_2 -ve3_1 ve3_1 ve3_2 -he2_3 -he1_3 he1_3 -ve2_2 -ve2_1 ve2_1 he2_2 -ve3_1 -ve3_0 -he2_0 -he1_0 he1_0"/>
    <route id="r105" edges="he1_2 ve2_2 he2_3 -ve3_2 -ve3_1 -ve3_0 -he2_0 -he1_0 ve1_0 ve1_1 -ve1_1 -ve1_0 he1_0 he2_0 ve3_0 ve3_1 -he2_2 -he1_2 ve1_2"/>
    <route id="r106" edges="-ve1_0 ve1_0 he1_1 he2_1 ve3_1 -he2_2 -he1_2 -he0_2 -ve0_1 -ve0_0 he0_0 he1_0 he2_0 ve3_0 -he2_1 -he1_1 -ve1_0 ve1_0 ve1_1 -he0_2 he0_2 he1_2 he2_2 -ve3_1 -ve3_0"/>
    <route id="r107" edges="-ve1_0 he1_0 he2_0 ve3_0 ve3_1 -he2_2 -ve2_1 -he1_1 -he0_1 -ve0_0 he0_0 he1_0 he2_0 ve3_0 ve3_1 ve3_2 -he2_3 -he1_3 he1_3"/>
    <route id="r108" edges="he0_2 he1_2 -ve2_1 he2_1 -he2_1 -he1_1 ve1_1 ve1_2 -ve1_2 -ve1_1 -ve1_0 -he0_0 ve0_0 ve0_1 he0_2 he1_2 -he1_2 -ve1_1 -ve1_0 -he0_0 ve0_0"/>
    <route id="r109" edges="-he2_1 -he1_1 -he0_1 ve0_1 he0_2 he1_2 ve2_2 he2_3 -ve3_2 -ve3_1 -ve3_0 -he2_0 ve2_0 he2_1 -he2_1 -he1_1 he1_1 he2_1 ve3_1"/>
    <route id="r110" edges="he1_1 he2_1 ve3_1 ve3_2 -he2_3 -he1_3 -he0_3 -ve0_2 he0_2 he1_2 -ve2_1 -ve2_0 -he1_0 he1_0 he2_0 ve3_0 ve3_1 ve3_2"/>
    <route id="r111" edges="ve2_1 he2_2 -ve3_1 -he2_1 -he1_1 -ve1_0 ve1_0 ve1_1 ve1_2 he1_3 he2_3 -ve3_2 -he2_2 he2_2 -he2_2 -he1_2 -he0_2 -ve0_1 -ve0_0 he0_0"/>
    <route id="r112" edges="-ve0_1 he0_1 ve1_1 he1_2 he2_2 ve3_2 -he2_3 -he1_3 -he0_3 -ve0_2 he0_2 he1_2 -ve2_1 -ve2_0 ve2_0 ve2_1 ve2_2"/>
    <route id="r113" edges="he0_0 he1_0 ve2_0 ve2_1 -he1_2 ve1_2 -he0_3 -ve0_2 -ve0_1 ve0_1 he0_2 he1_2 -ve2_1 ve2_1 ve2_2"/>
    <route id="r114" edges="he0_0 ve1_0 ve1_1 -he0_2 -ve0_1 he0_1 ve1_1 ve1_2 -he0_3 -ve0_2 -ve0_1 -ve0_0 he0_0 he1_0 he2_0 ve3_0 ve3_1 ve3_2 -he2_3 he2_3 -ve3_2"/>
    <route id="r115" edges="-he1_3 -he0_3 -ve0_2 -ve0_1 he0_1 ve1_1 -ve1_1 ve1_1 -he0_2 he0_2 he1_2 he2_2 -ve3_1 -ve3_0 -he2_0 -he1_0 ve1_0 -ve1_0"/>
    <route id="r116" edges="-he2_1 he2_1 -he2_1 -he1_1 -he0_1 ve0_1 ve0_2 he0_3 he1_3 he2_3 -ve3_2 ve3_2 -he2_3 -he1_3 -he0_3 -ve0_2 -ve0_1 ve0_1 he0_2 -he0_2 ve0_2 he0_3 he1_3 he2_3"/>
    <route id="r117" edges="he2_1 -he2_1 -he1_1 -he0_1 ve0_1 ve0_2 he0_3 he1_3 -ve2_2 -ve2_1 -ve2_0 ve2_0 ve2_1 ve2_2 -he1_3 he1_3 -he1_3 -ve1_2 -ve1_1 -ve1_0 ve1_0 he1_1 he2_1 ve3_1 ve3_2 -he2_3 he2_3 -ve3_2"/>
    <route id="r118" edges="-he0_1 -ve0_0 he0_0 he1_0 ve2_0 ve2_1 -he1_2 ve1_2 he1_3 he2_3 -ve3_2 -ve3_1 -ve3_0 -he2_0 -he1_0 -he0_0 ve0_0 he0_1"/>
    <route id="r119" edges="-ve3_0 -he2_0 ve2_0 ve2_1 he2_2 -he2_2 -ve2_1 ve2_1 ve2_2 -he1_3 he1_3 -he1_3 he1_3 he2_3 -ve3_2 -ve3_1 ve3_1"/>
    <route id="r120" edges="-ve1_1 he1_1 he2_1 ve3_1 ve3_2 -he2_3 -he1_3 he1_3 -he1_3 -ve1_2 -ve1_1 ve1_1 ve1_2 -ve1_2 -ve1_1 he1_1 -ve2_0"/>
    <route id="r121" edges="-ve1_0 ve1_0 ve1_1 he1_2 he2_2 -ve3_1 -ve3_0 -he2_0 -he1_0 -he0_0 ve0_0 ve0_1 he0_2 ve1_2 -ve1_2 -ve1_1 -he0_1 he0_1 ve1_1 ve1_2 -he0_3 -ve0_2 he0_2 he1_2"/>
    <route id="r122" edges="ve2_2 -ve2_2 he2_2 ve3_2 -he2_3 he2_3 -ve3_2 ve3_2 -he2_3 -ve2_2 -ve2_1 -ve2_0 -he1_0 ve1_0 ve1_1 he1_2 -he1_2 ve1_2"/>
    <route id="r123" edges="-ve3_0 -he2_0 ve2_0 he2_1 -he2_1 ve2_1 -he1_2 -he0_2 ve0_2 he0_3 -he0_3 -ve0_2 he0_2 ve1_2 -ve1_2"/>
    <route id="r124" edges="-he1_2 -he0_2 -ve0_1 he0_1 ve1_1 -he0_2 ve0_2 he0_3 -he0_3 -ve0_2 ve0_2 he0_3 he1_3 he2_3 -ve3_2 -ve3_1 -ve3_0 -he2_0 -he1_0 ve1_0 ve1_1 ve1_2 -he0_3 -ve0_2 he0_2 ve1_2"/>
    <route id="r125" edges="he1_1 he2_1 ve3_1 ve3_2 -he2_3 -ve2_2 -ve2_1 ve2_1 -he1_2 he1_2 he2_2 -ve3_1 -he2_1 -he1_1 -he0_1 -ve0_0"/>
    <route id="r126" edges="-he0_0 ve0_0 ve0_1 ve0_2 he0_3 he1_3 -ve2_2 -ve2_1 ve2_1 -ve2_1 -ve2_0 he2_0 ve3_0 ve3_1 ve3_2 -he2_3 -he1_3 he1_3 he2_3 -ve3_2 -ve3_1 -ve3_0 -he2_0 -he1_0 ve1_0 ve1_1 -ve1_1"/>
    <route id="r127" edges="he1_0 ve2_0 ve2_1 -he1_2 he1_2 ve2_2 -ve2_2 -he1_2 -he0_2 -ve0_1 -ve0_0 he0_0 ve1_0 ve1_1 -ve1_1 he1_1 he2_1 -he2_1 -ve2_0"/>
    <route id="r128" edges="-ve3_2 ve3_2 -he2_3 -he1_3 -he0_3 -ve0_2 ve0_2 he0_3 he1_3 he2_3 -ve3_2 ve3_2 -he2_3 -he1_3 -he0_3 -ve0_2 -ve0_1 he0_1 he1_1 he2_1 ve3_1"/>
    <route id="r129" edges="he1_3 -he1_3 -he0_3 -ve0_2 -ve0_1 ve0_1 ve0_2 he0_3 he1_3 -ve2_2 -ve2_1 -ve2_0 he2_0 ve3_0 ve3_1 ve3_2 -he2_3 he2_3 -ve3_2 -he2_2 -he1_2 -he0_2 -ve0_1 he0_1 he1_1"/>
    <route id="r130" edges="-ve3_2 -he2_2 -ve2_1 ve2_1 -he1_2 -he0_2 -ve0_1 ve0_1 ve0_2 he0_3 -ve1_2 -ve1_1 he1_1 ve2_1 -he1_2 -ve1_1 ve1_1 he1_2"/>
    <route id="r131" edges="he1_1 -ve2_0 he2_0 ve3_0 ve3_1 -he2_2 he2_2 ve3_2 -he2_3 -he1_3 he1_3 -he1_3 -ve1_2 -ve1_1 ve1_1 he1_2 -ve2_1 ve2_1"/>
    <route id="r132" edges="he1_3 -he1_3 -he0_3 -ve0_2 -ve0_1 he0_1 he1_1 he2_1 -ve3_0 -he2_0 -he1_0 -he0_0 ve0_0 ve0_1 ve0_2 he0_3 he1_3 he2_3 -ve3_2 -ve3_1 -ve3_0 -he2_0 -he1_0 ve1_0 ve1_1 ve1_2 -he0_3 -ve0_2"/>
    <route id="r133" edges="he2_3 -ve3_2 -ve3_1 -ve3_0 -he2_0 ve2_0 ve2_1 -he1_2 -he0_2 -ve0_1 he0_1 he1_1 he2_1 ve3_1 -he2_2 -he1_2 -he0_2 -ve0_1 he0_1 he1_1 ve2_1"/>
    <route id="r134" edges="ve1_0 -he0_1 -ve0_0 he0_0 ve1_0 ve1_1 ve1_2 he1_3 he2_3 -ve3_2 -he2_2 -he1_2 -he0_2 ve0_2 he0_3 he1_3 he2_3 -ve3_2 -he2_2 -he1_2 -ve1_1"/>
    <route id="r135" edges="-he1_1 he1_1 he2_1 ve3_1 -he2_2 -he1_2 -ve1_1 he1_1 he2_1 ve3_1 -he2_2 -he1_2 ve1_2 -ve1_2 he1_2 he2_2 ve3_2"/>
    <route id="r136" edges="ve3_1 -he2_2 -he1_2 -he0_2 ve0_2 he0_3 -ve1_2 -ve1_1 -he0_1 ve0_1 -ve0_1 -ve0_0 he0_0 -he0_0 ve0_0 he0_1 he1_1 he2_1 -ve3_0"/>
    <route id="r137" edges="he2_0 ve3_0 -he2_1 -he1_1 -ve1_0 he1_0 -he1_0 ve1_0 -ve1_0 he1_0 he2_0 ve3_0 -he2_1 -he1_1 he1_1 he2_1 ve3_1 ve3_2 -he2_3"/>
    <route id="r138" edges="-he0_1 -ve0_0 he0_0 he1_0 ve2_0 ve2_1 -he1_2 -he0_2 he0_2 he1_2 -ve2_1 ve2_1 he2_2 -he2_2 -he1_2 ve1_2 -he0_3 -ve0_2 -ve0_1 -ve0_0 he0_0 ve1_0"/>
    <route id="r139" edges="ve2_1 ve2_2 -he1_3 -he0_3 -ve0_2 he0_2 he1_2 -ve2_1 ve2_1 -he1_2 -ve1_1 -ve1_0 he1_0 he2_0 ve3_0 ve3_1 ve3_2 -he2_3 -he1_3 -he0_3 -ve0_2 he0_2 ve1_2 he1_3 he2_3 -ve3_2"/>
    <route id="r140" edges="-he1_0 he1_0 ve2_0 ve2_1 -he1_2 -ve1_1 he1_1 he2_1 -ve3_0 -he2_0 he2_0 ve3_0 ve3_1 ve3_2 -he2_3 he2_3 -ve3_2 -ve3_1 -ve3_0 -he2_0 he2_0 ve3_0"/>
    <route id="r141" edges="-ve2_2 ve2_2 he2_3 -ve3_2 ve3_2 -he2_3 -he1_3 -ve1_2 he1_2 -ve2_1 -ve2_0 -he1_0 he1_0 ve2_0 ve2_1 ve2_2 he2_3 -ve3_2 -he2_2 -ve2_1"/>
    <route id="r142" edges="ve3_0 -he2_1 -he1_1 -he0_1 he0_1 ve1_1 ve1_2 -ve1_2 he1_2 he2_2 -ve3_1 -ve3_0 -he2_0 he2_0 ve3_0 ve3_1 -he2_2 -he1_2 ve1_2 -ve1_2 -ve1_1 -ve1_0 he1_0 -he1_0"/>
    <route id="r143" edges="he2_0 ve3_0 ve3_1 -he2_2 -he1_2 -he0_2 he0_2 he1_2 he2_2 -ve3_1 ve3_1 ve3_2 -he2_3 -he1_3 -ve1_2 he1_2 -ve2_1 he2_1 -he2_1 -he1_1"/>
    <route id="r144" edges="ve1_1 he1_2 he2_2 -ve3_1 -ve3_0 -he2_0 -he1_0 ve1_0 ve1_1 ve1_2 he1_3 -he1_3 -ve1_2 he1_2 -he1_2 -ve1_1 -ve1_0 he1_0 ve2_0 -he1_1 -he0_1 ve0_1"/>
    <route id="r145" edges="-he2_3 -ve2_2 -he1_2 -he0_2 ve0_2 he0_3 -he0_3 -ve0_2 -ve0_1 -ve0_0 he0_0 -he0_0 ve0_0 he0_1 he1_1 he2_1 -he2_1 he2_1 ve3_1 -he2_2"/>
    <route id="r146" edges="ve1_2 -ve1_2 -ve1_1 -ve1_0 he1_0 ve2_0 ve2_1 ve2_2 -he1_3 -ve1_2 -ve1_1 he1_1 ve2_1 -ve2_1 -ve2_0 -he1_0 -he0_0 ve0_0 ve0_1 he0_2 ve1_2 -ve1_2 he1_2 -he1_2"/>
    <route id="r147" edges="-he1_2 -he0_2 -ve0_1 -ve0_0 he0_0 he1_0 he2_0 ve3_0 -ve3_0 -he2_0 -he1_0 ve1_0 ve1_1 ve1_2 he1_3 -he1_3 -ve1_2 -ve1_1 -he0_1 -ve0_0 he0_0 -he0_0 ve0_0 ve0_1"/>
    <route id="r148" edges="-he2_3 -he1_3 -ve1_2 -ve1_1 -ve1_0 he1_0 he2_0 ve3_0 -ve3_0 -he2_0 -he1_0 ve1_0 ve1_1 -he0_2 ve0_2 he0_3 he1_3 he2_3 -ve3_2 -ve3_1 -he2_1 -he1_1 -he0_1 he0_1 he1_1 ve2_1 ve2_2 he2_3"/>
    <route id="r149" edges="-ve3_1 -he2_1 -he1_1 -he0_1 ve0_1 -ve0_1 -ve0_0 he0_0 he1_0 ve2_0 -he1_1 -he0_1 -ve0_0 he0_0 he1_0 he2_0 ve3_0 ve3_1 -he2_2 -he1_2 -he0_2"/>
    <route id="r150" edges="ve0_1 he0_2 ve1_2 -he0_3 -ve0_2 -ve0_1 he0_1 he1_1 he2_1 -ve3_0 -he2_0 he2_0 ve3_0 ve3_1 -he2_2 -he1_2 -he0_2 he0_2 he1_2 he2_2 -ve3_1"/>
    <route id="r151" edges="-ve2_1 -ve2_0 he2_0 ve3_0 ve3_1 ve3_2 -he2_3 he2_3 -ve3_2 -he2_2 -ve2_1 ve2_1 ve2_2 -he1_3 -he0_3 -ve0_2 -ve0_1 he0_1 he1_1"/>
    <route id="r152" edges="-he0_3 -ve0_2 -ve0_1 he0_1 ve1_1 he1_2 -he1_2 -he0_2 he0_2 -ve1_1 -ve1_0 he1_0 he2_0 ve3_0 ve3_1 ve3_2 -he2_3 -he1_3 -he0_3 -ve0_2 -ve0_1 he0_1"/>
    <route id="r153" edges="-ve3_0 -he2_0 -he1_0 ve1_0 he1_1 -ve2_0 -he1_0 he1_0 ve2_0 he2_1 -he2_1 -he1_1 ve1_1 ve1_2 he1_3 -he1_3 -ve1_2 -ve1_1 -ve1_0 -he0_0 ve0_0"/>
    <route id="r154" edges="he2_2 -he2_2 -ve2_1 he2_1 -ve3_0 -he2_0 he2_0 ve3_0 ve3_1 -he2_2 -he1_2 -ve1_1 he1_1 he2_1 -ve3_0 -he2_0 ve2_0 ve2_1 -ve2_1"/>
    <route id="r155" edges="-he1_0 he1_0 ve2_0 ve2_1 ve2_2 -ve2_2 ve2_2 -he1_3 he1_3 -he1_3 -ve1_2 he1_2 ve2_2 -he1_3 -ve1_2 he1_2 ve2_2 -he1_3 -he0_3"/>
    <route id="r156" edges="ve1_0 -ve1_0 he1_0 -he1_0 he1_0 ve2_0 ve2_1 ve2_2 he2_3 -ve3_2 -he2_2 -he1_2 -he0_2 ve0_2 he0_3 -he0_3 -ve0_2 he0_2 -ve1_1 -ve1_0 he1_0"/>
    <route id="r157" edges="he0_2 -ve1_1 -ve1_0 he1_0 ve2_0 -he1_1 ve1_1 -ve1_1 ve1_1 ve1_2 he1_3 -he1_3 -ve1_2 -ve1_1 -ve1_0 -he0_0 ve0_0 ve0_1 he0_2 ve1_2"/>
    <route id="r158" edges="he2_2 -ve3_1 ve3_1 -he2_2 -he1_2 -ve1_1 -ve1_0 he1_0 ve2_0 ve2_1 -he1_2 -ve1_1 -he0_1 ve0_1 ve0_2 he0_3 he1_3 he2_3 -ve3_2 -he2_2 -he1_2 ve1_2 he1_3"/>
    <route id="r159" edges="-he2_2 -ve2_1 -he1_1 ve1_1 ve1_2 -ve1_2 -ve1_1 -ve1_0 -he0_0 ve0_0 ve0_1 ve0_2 he0_3 -he0_3 -ve0_2 ve0_2"/>
    <route id="r160" edges="ve1_1 -ve1_1 he1_1 he2_1 ve3_1 -he2_2 -he1_2 -ve1_1 -ve1_0 ve1_0 he1_1 ve2_1 -he1_2 he1_2 -he1_2 -ve1_1 -he0_1 he0_1 he1_1 ve2_1 ve2_2"/>
    <route id="r161" edges="ve1_0 -he0_1 -ve0_0 he0_0 he1_0 he2_0 ve3_0 -ve3_0 -he2_0 ve2_0 he2_1 ve3_1 ve3_2 -he2_3 -he1_3 -he0_3 -ve0_2 he0_2 -ve1_1 -ve1_0 -he0_0"/>
    <route id="r162" edges="ve1_2 -he0_3 -ve0_2 ve0_2 he0_3 he1_3 -ve2_2 -ve2_1 ve2_1 -he1_2 he1_2 -he1_2 -ve1_1 -he0_1 ve0_1 ve0_2 he0_3 he1_3 he2_3"/>
    <route id="r163" edges="-he2_2 ve2_2 -ve2_2 -he1_2 -ve1_1 ve1_1 ve1_2 -ve1_2 he1_2 he2_2 -he2_2 -he1_2 -ve1_1 -he0_1 ve0_1 ve0_2 he0_3"/>
    <route id="r164" edges="-he1_0 ve1_0 ve1_1 -he0_2 he0_2 he1_2 ve2_2 -he1_3 -ve1_2 -ve1_1 he1_1 -ve2_0 he2_0 ve3_0 ve3_1 -he2_2 -he1_2 -he0_2 -ve0_1 ve0_1 ve0_2 he0_3 he1_3"/>
    <route id="r165" edges="-ve3_2 -ve3_1 -ve3_0 -he2_0 -he1_0 -he0_0 ve0_0 ve0_1 -ve0_1 -ve0_0 he0_0 -he0_0 ve0_0 he0_1 he1_1 -he1_1 he1_1 ve2_1 ve2_2 -ve2_2 -he1_2 -he0_2 -ve0_1"/>
    <route id="r166" edges="he2_0 ve3_0 ve3_1 ve3_2 -he2_3 he2_3 -ve3_2 -ve3_1 -ve3_0 -he2_0 he2_0 ve3_0 ve3_1 -he2_2 -he1_2 -he0_2 -ve0_1 he0_1 he1_1 -ve2_0 -he1_0 he1_0 -he1_0 -he0_0"/>
    <route id="r167" edges="-ve0_2 he0_2 he1_2 he2_2 -he2_2 -he1_2 -he0_2 -ve0_1 -ve0_0 he0_0 ve1_0 -ve1_0 -he0_0 ve0_0 ve0_1 ve0_2 he0_3 he1_3 he2_3"/>
    <route id="r168" edges="-he2_0 ve2_0 -ve2_0 ve2_0 he2_1 -he2_1 -he1_1 -he0_1 -ve0_0 he0_0 ve1_0 ve1_1 -he0_2 ve0_2 he0_3 -he0_3"/>
    <route id="r169" edges="ve1_2 -ve1_2 -he0_2 -ve0_1 -ve0_0 he0_0 -he0_0 ve0_0 ve0_1 he0_2 he1_2 ve2_2 -he1_3 -ve1_2 ve1_2 -he0_3 -ve0_2 ve0_2 he0_3"/>
    <route id="r170" edges="he2_2 ve3_2 -he2_3 -ve2_2 -ve2_1 -he1_1 -he0_1 he0_1 -ve1_0 -he0_0 ve0_0 ve0_1 ve0_2 he0_3 -ve1_2 -ve1_1 he1_1"/>
    <route id="r171" edges="ve1_0 he1_1 ve2_1 ve2_2 -ve2_2 -ve2_1 -ve2_0 -he1_0 ve1_0 ve1_1 he1_2 he2_2 ve3_2 -he2_3 -he1_3 -ve1_2 -ve1_1 -ve1_0 he1_0 ve2_0 -he1_1 -he0_1 he0_1"/>
    <route id="r172" edges="-ve2_0 ve2_0 ve2_1 ve2_2 -he1_3 -he0_3 -ve0_2 he0_2 -ve1_1 -ve1_0 he1_0 he2_0 ve3_0 -ve3_0 -he2_0 -he1_0 -he0_0 ve0_0 -ve0_0 he0_0 he1_0 ve2_0 -he1_1"/>
    <route id="r173" edges="he0_0 he1_0 ve2_0 ve2_1 -he1_2 -ve1_1 ve1_1 he1_2 he2_2 -he2_2 -he1_2 -ve1_1 -ve1_0 ve1_0 he1_1 he2_1 ve3_1 ve3_2 -he2_3"/>